 xtb: 6.6.0 (8843059)
          05242313123D

 14 18  0     0  0            999 V2000
    5.4028    7.0418    7.1435 P   0  0  0  0  0  0  0  0  0  0  0  0
    5.4028    7.3662    4.9303 P   0  0  0  0  0  0  0  0  0  0  0  0
    5.5166    3.7183    5.0851 P   0  0  0  0  0  0  0  0  0  0  0  0
    5.4785   10.6903    6.9871 P   0  0  0  0  0  0  0  0  0  0  0  0
    4.5097   10.6518    5.1757 P   0  0  0  0  0  0  0  0  0  0  0  0
    4.5465    3.7476    6.8960 P   0  0  0  0  0  0  0  0  0  0  0  0
    9.0124    7.4509    7.0364 P   0  0  0  0  0  0  0  0  0  0  0  0
    9.0174    7.0064    5.0438 P   0  0  0  0  0  0  0  0  0  0  0  0
    7.2883    7.4435    8.2302 P   0  0  0  0  0  0  0  0  0  0  0  0
    7.2944    6.9856    3.8476 P   0  0  0  0  0  0  0  0  0  0  0  0
    4.1827    5.4961    7.9338 P   0  0  0  0  0  0  0  0  0  0  0  0
    4.1710    8.9001    4.1363 P   0  0  0  0  0  0  0  0  0  0  0  0
    5.5548    5.4540    3.8932 P   0  0  0  0  0  0  0  0  0  0  0  0
    5.5333    8.9562    8.1803 P   0  0  0  0  0  0  0  0  0  0  0  0
  1  2  1  0  0  0  0
  4  5  2  0  0  0  0
  3  6  2  0  0  0  0
  7  8  2  0  0  0  0
  1  9  1  0  0  0  0
  7  9  2  0  0  0  0
  2 10  1  0  0  0  0
  8 10  2  0  0  0  0
  1 11  1  0  0  0  0
  6 11  2  0  0  0  0
  2 12  1  0  0  0  0
  5 12  2  0  0  0  0
  2 13  1  0  0  0  0
  3 13  2  0  0  0  0
 10 13  1  0  0  0  0
  1 14  1  0  0  0  0
  4 14  2  0  0  0  0
  9 14  1  0  0  0  0
M  END
